Circuit: * C:\Projects\Github\arduino_adjustable_power_supply\simulations\final_output.asc

Direct Newton iteration failed to find .op point.  (Use ".option noopiter" to skip.)
Starting Gmin stepping
Gmin = 10
Gmin = 1.07374
Gmin = 0.115292
Gmin = 0.0123794
Gmin = 0.00132923
Gmin = 0.000142725
vernier = 0.5
vernier = 0.25
Gmin = 7.96381e-005
vernier = 0.333333
vernier = 0.444444
Gmin = 3.38024e-005
vernier = 0.592592
vernier = 0.790123
Gmin = 8.98257e-006
vernier = 1
Gmin = 1.19514e-006
Gmin = 1.28327e-007
Gmin = 1.3779e-008
Gmin = 1.47951e-009
Gmin = 1.58861e-010
Gmin = 1.70576e-011
Gmin = 1.83154e-012
Gmin = 1.9666e-013
Gmin = 0
Gmin stepping succeeded in finding the operating point.


Date: Fri Mar 19 21:35:52 2021
Total elapsed time: 23.365 seconds.

tnom = 27
temp = 27
method = modified trap
totiter = 1502338
traniter = 1501670
tranpoints = 433748
accept = 337587
rejected = 96161
matrix size = 64
fillins = 28
solver = Normal
Matrix Compiler1: 6.46 KB object code size  2.1/1.1/[0.5]
Matrix Compiler2: 5.74 KB object code size  2.4/1.8/[1.0]

