Circuit: * C:\Projects\Github\arduino_adjustable_power_supply\simulations\final_output.asc

Direct Newton iteration failed to find .op point.  (Use ".option noopiter" to skip.)
Starting Gmin stepping
Gmin = 10
Gmin = 1.07374
Gmin = 0.115292
Gmin = 0.0123794
Gmin = 0.00132923
Gmin = 0.000142725
vernier = 0.5
vernier = 0.25
Gmin = 7.96381e-005
vernier = 0.333333
vernier = 0.444444
Gmin = 3.38024e-005
vernier = 0.592592
vernier = 0.790123
Gmin = 8.98257e-006
vernier = 1
Gmin = 1.19514e-006
Gmin = 1.28327e-007
Gmin = 1.3779e-008
Gmin = 1.47951e-009
Gmin = 1.58861e-010
Gmin = 1.70576e-011
Gmin = 1.83154e-012
Gmin = 1.9666e-013
Gmin = 0
Gmin stepping succeeded in finding the operating point.

Heightened Def Con from 0.00325695 to 0.00325695
Heightened Def Con from 0.00328163 to 0.00328164
Heightened Def Con from 0.00347908 to 0.00347908
Heightened Def Con from 0.00348402 to 0.00348402
Heightened Def Con from 0.00352351 to 0.00352352
Heightened Def Con from 0.00357287 to 0.00357287
Heightened Def Con from 0.00370122 to 0.00370122
Heightened Def Con from 0.00370615 to 0.00370616
Heightened Def Con from 0.00372096 to 0.00372097
Heightened Def Con from 0.00375057 to 0.00375058
Heightened Def Con from 0.00375551 to 0.00375552
Heightened Def Con from 0.00390004 to 0.00390005

Date: Fri Mar 19 08:17:49 2021
Total elapsed time: 124.662 seconds.

tnom = 27
temp = 27
method = modified trap
totiter = 3635679
traniter = 3635027
tranpoints = 1056679
accept = 819565
rejected = 237126
matrix size = 64
fillins = 28
solver = Normal
Thread vector: 17.1/22.0[1] 8.4/9.8[1] 24.7/11.1[4] 0.4/8.3[1]  2592/500
Matrix Compiler1: 6.46 KB object code size  2.4/1.4/[0.6]
Matrix Compiler2: 5.74 KB object code size  1.3/2.0/[0.7]

